MODEL 1
REMARK VINA RESULT:     0.000      0.000      0.000
REMARK INTER + INTRA:          -0.729
REMARK INTER:                   0.000
REMARK INTRA:                  -0.729
REMARK UNBOUND:                -0.729
REMARK  Name = user_ligand.pdb
REMARK  5 active torsions:
REMARK  status: ('A' for Active; 'I' for Inactive)
REMARK    1  A    between atoms: C1_1  and  C2_2
REMARK    2  A    between atoms: C2_2  and  O2_4
REMARK    3  A    between atoms: O2_4  and  C3_5
REMARK    4  A    between atoms: C8_10  and  C9_11
REMARK    5  A    between atoms: C9_11  and  O4_13
REMARK                            x       y       z     vdW  Elec       q    Type
REMARK                         _______ _______ _______ _____ _____    ______ ____
ROOT
ATOM      1  C3  UNL     1      40.433  13.008  48.500  0.00  0.00    +0.000 A 
ATOM      2  C4  UNL     1      41.829  13.066  48.452  0.00  0.00    +0.000 A 
ATOM      3  C5  UNL     1      42.453  14.024  47.655  0.00  0.00    +0.000 A 
ATOM      4  C6  UNL     1      41.685  14.912  46.902  0.00  0.00    +0.000 A 
ATOM      5  C7  UNL     1      40.289  14.839  46.938  0.00  0.00    +0.000 A 
ATOM      6  C8  UNL     1      39.644  13.879  47.734  0.00  0.00    +0.000 A 
ENDROOT
BRANCH   6   7
ATOM      7  C9  UNL     1      38.160  13.778  47.753  0.00  0.00    +0.000 C 
ATOM      8  O3  UNL     1      37.434  13.456  46.831  0.00  0.00    +0.000 OA
BRANCH   7   9
ATOM      9  O4  UNL     1      37.637  14.094  48.953  0.00  0.00    +0.000 OA
ATOM     10  H8  UNL     1      38.415  14.114  49.550  0.00  0.00    +0.000 HD
ENDBRANCH   7   9
ENDBRANCH   6   7
BRANCH   1  11
ATOM     11  O2  UNL     1      39.870  12.005  49.295  0.00  0.00    +0.000 OA
BRANCH  11  13
ATOM     12  C1  UNL     1      40.621  11.138  51.348  0.00  0.00    +0.000 C 
ATOM     13  C2  UNL     1      39.957  12.290  50.654  0.00  0.00    +0.000 C 
ATOM     14  O1  UNL     1      39.583  13.312  51.212  0.00  0.00    +0.000 OA
ENDBRANCH  11  13
ENDBRANCH   1  11
TORSDOF 4
ENDMDL
MODEL 2
REMARK VINA RESULT:     0.000     10.759     12.366
REMARK INTER + INTRA:          -0.729
REMARK INTER:                   0.000
REMARK INTRA:                  -0.729
REMARK UNBOUND:                -0.729
REMARK  Name = user_ligand.pdb
REMARK  5 active torsions:
REMARK  status: ('A' for Active; 'I' for Inactive)
REMARK    1  A    between atoms: C1_1  and  C2_2
REMARK    2  A    between atoms: C2_2  and  O2_4
REMARK    3  A    between atoms: O2_4  and  C3_5
REMARK    4  A    between atoms: C8_10  and  C9_11
REMARK    5  A    between atoms: C9_11  and  O4_13
REMARK                            x       y       z     vdW  Elec       q    Type
REMARK                         _______ _______ _______ _____ _____    ______ ____
ROOT
ATOM      1  C3  UNL     1      50.977   9.360  46.176  0.00  0.00    +0.000 A 
ATOM      2  C4  UNL     1      51.791   8.463  46.876  0.00  0.00    +0.000 A 
ATOM      3  C5  UNL     1      51.598   7.092  46.723  0.00  0.00    +0.000 A 
ATOM      4  C6  UNL     1      50.590   6.620  45.883  0.00  0.00    +0.000 A 
ATOM      5  C7  UNL     1      49.766   7.519  45.199  0.00  0.00    +0.000 A 
ATOM      6  C8  UNL     1      49.945   8.904  45.343  0.00  0.00    +0.000 A 
ENDROOT
BRANCH   6   7
ATOM      7  C9  UNL     1      49.053   9.865  44.642  0.00  0.00    +0.000 C 
ATOM      8  O3  UNL     1      47.862  10.031  44.828  0.00  0.00    +0.000 OA
BRANCH   7   9
ATOM      9  O4  UNL     1      49.705  10.591  43.714  0.00  0.00    +0.000 OA
ATOM     10  H8  UNL     1      50.065  11.349  44.221  0.00  0.00    +0.000 HD
ENDBRANCH   7   9
ENDBRANCH   6   7
BRANCH   1  11
ATOM     11  O2  UNL     1      51.204  10.721  46.398  0.00  0.00    +0.000 OA
BRANCH  11  13
ATOM     12  C1  UNL     1      53.232  11.850  46.771  0.00  0.00    +0.000 C 
ATOM     13  C2  UNL     1      52.350  11.182  45.760  0.00  0.00    +0.000 C 
ATOM     14  O1  UNL     1      52.628  11.056  44.575  0.00  0.00    +0.000 OA
ENDBRANCH  11  13
ENDBRANCH   1  11
TORSDOF 4
ENDMDL
MODEL 3
REMARK VINA RESULT:     0.000      8.166      9.590
REMARK INTER + INTRA:          -0.729
REMARK INTER:                   0.000
REMARK INTRA:                  -0.729
REMARK UNBOUND:                -0.729
REMARK  Name = user_ligand.pdb
REMARK  5 active torsions:
REMARK  status: ('A' for Active; 'I' for Inactive)
REMARK    1  A    between atoms: C1_1  and  C2_2
REMARK    2  A    between atoms: C2_2  and  O2_4
REMARK    3  A    between atoms: O2_4  and  C3_5
REMARK    4  A    between atoms: C8_10  and  C9_11
REMARK    5  A    between atoms: C9_11  and  O4_13
REMARK                            x       y       z     vdW  Elec       q    Type
REMARK                         _______ _______ _______ _____ _____    ______ ____
ROOT
ATOM      1  C3  UNL     1      42.758  22.085  48.278  0.00  0.00    +0.000 A 
ATOM      2  C4  UNL     1      42.632  22.157  46.887  0.00  0.00    +0.000 A 
ATOM      3  C5  UNL     1      43.636  22.762  46.134  0.00  0.00    +0.000 A 
ATOM      4  C6  UNL     1      44.754  23.302  46.769  0.00  0.00    +0.000 A 
ATOM      5  C7  UNL     1      44.868  23.245  48.162  0.00  0.00    +0.000 A 
ATOM      6  C8  UNL     1      43.865  22.641  48.936  0.00  0.00    +0.000 A 
ENDROOT
BRANCH   6   7
ATOM      7  C9  UNL     1      43.966  22.603  50.419  0.00  0.00    +0.000 C 
ATOM      8  O3  UNL     1      43.940  23.552  51.181  0.00  0.00    +0.000 OA
BRANCH   7   9
ATOM      9  O4  UNL     1      44.103  21.351  50.896  0.00  0.00    +0.000 OA
ATOM     10  H8  UNL     1      44.785  20.953  50.315  0.00  0.00    +0.000 HD
ENDBRANCH   7   9
ENDBRANCH   6   7
BRANCH   1  11
ATOM     11  O2  UNL     1      41.701  21.492  48.977  0.00  0.00    +0.000 OA
BRANCH  11  13
ATOM     12  C1  UNL     1      40.344  19.675  48.359  0.00  0.00    +0.000 C 
ATOM     13  C2  UNL     1      41.692  20.107  48.854  0.00  0.00    +0.000 C 
ATOM     14  O1  UNL     1      42.622  19.346  49.083  0.00  0.00    +0.000 OA
ENDBRANCH  11  13
ENDBRANCH   1  11
TORSDOF 4
ENDMDL
MODEL 4
REMARK VINA RESULT:     0.002      8.697     10.055
REMARK INTER + INTRA:          -0.727
REMARK INTER:                   0.000
REMARK INTRA:                  -0.727
REMARK UNBOUND:                -0.729
REMARK  Name = user_ligand.pdb
REMARK  5 active torsions:
REMARK  status: ('A' for Active; 'I' for Inactive)
REMARK    1  A    between atoms: C1_1  and  C2_2
REMARK    2  A    between atoms: C2_2  and  O2_4
REMARK    3  A    between atoms: O2_4  and  C3_5
REMARK    4  A    between atoms: C8_10  and  C9_11
REMARK    5  A    between atoms: C9_11  and  O4_13
REMARK                            x       y       z     vdW  Elec       q    Type
REMARK                         _______ _______ _______ _____ _____    ______ ____
ROOT
ATOM      1  C3  UNL     1      39.000  19.633  42.163  0.00  0.00    +0.000 A 
ATOM      2  C4  UNL     1      38.604  18.873  41.058  0.00  0.00    +0.000 A 
ATOM      3  C5  UNL     1      37.272  18.485  40.929  0.00  0.00    +0.000 A 
ATOM      4  C6  UNL     1      36.344  18.845  41.904  0.00  0.00    +0.000 A 
ATOM      5  C7  UNL     1      36.746  19.589  43.018  0.00  0.00    +0.000 A 
ATOM      6  C8  UNL     1      38.084  19.988  43.165  0.00  0.00    +0.000 A 
ENDROOT
BRANCH   6   7
ATOM      7  C9  UNL     1      38.524  20.753  44.361  0.00  0.00    +0.000 C 
ATOM      8  O3  UNL     1      38.545  20.365  45.514  0.00  0.00    +0.000 OA
BRANCH   7   9
ATOM      9  O4  UNL     1      38.925  22.002  44.056  0.00  0.00    +0.000 OA
ATOM     10  H8  UNL     1      39.760  21.865  43.560  0.00  0.00    +0.000 HD
ENDBRANCH   7   9
ENDBRANCH   6   7
BRANCH   1  11
ATOM     11  O2  UNL     1      40.355  19.965  42.247  0.00  0.00    +0.000 OA
BRANCH  11  13
ATOM     12  C1  UNL     1      41.866  20.497  40.527  0.00  0.00    +0.000 C 
ATOM     13  C2  UNL     1      40.714  20.973  41.359  0.00  0.00    +0.000 C 
ATOM     14  O1  UNL     1      40.180  22.068  41.241  0.00  0.00    +0.000 OA
ENDBRANCH  11  13
ENDBRANCH   1  11
TORSDOF 4
ENDMDL
MODEL 5
REMARK VINA RESULT:     0.002      6.236      8.031
REMARK INTER + INTRA:          -0.727
REMARK INTER:                   0.000
REMARK INTRA:                  -0.727
REMARK UNBOUND:                -0.729
REMARK  Name = user_ligand.pdb
REMARK  5 active torsions:
REMARK  status: ('A' for Active; 'I' for Inactive)
REMARK    1  A    between atoms: C1_1  and  C2_2
REMARK    2  A    between atoms: C2_2  and  O2_4
REMARK    3  A    between atoms: O2_4  and  C3_5
REMARK    4  A    between atoms: C8_10  and  C9_11
REMARK    5  A    between atoms: C9_11  and  O4_13
REMARK                            x       y       z     vdW  Elec       q    Type
REMARK                         _______ _______ _______ _____ _____    ______ ____
ROOT
ATOM      1  C3  UNL     1      46.642  13.419  48.832  0.00  0.00    +0.000 A 
ATOM      2  C4  UNL     1      45.643  14.125  48.155  0.00  0.00    +0.000 A 
ATOM      3  C5  UNL     1      44.304  13.867  48.438  0.00  0.00    +0.000 A 
ATOM      4  C6  UNL     1      43.965  12.901  49.384  0.00  0.00    +0.000 A 
ATOM      5  C7  UNL     1      44.966  12.182  50.045  0.00  0.00    +0.000 A 
ATOM      6  C8  UNL     1      46.321  12.429  49.772  0.00  0.00    +0.000 A 
ENDROOT
BRANCH   6   7
ATOM      7  C9  UNL     1      47.389  11.648  50.450  0.00  0.00    +0.000 C 
ATOM      8  O3  UNL     1      47.614  10.458  50.335  0.00  0.00    +0.000 OA
BRANCH   7   9
ATOM      9  O4  UNL     1      48.146  12.408  51.264  0.00  0.00    +0.000 OA
ATOM     10  H8  UNL     1      47.528  13.103  51.576  0.00  0.00    +0.000 HD
ENDBRANCH   7   9
ENDBRANCH   6   7
BRANCH   1  11
ATOM     11  O2  UNL     1      47.965  13.705  48.480  0.00  0.00    +0.000 OA
BRANCH  11  13
ATOM     12  C1  UNL     1      48.931  15.760  47.869  0.00  0.00    +0.000 C 
ATOM     13  C2  UNL     1      48.403  14.920  48.994  0.00  0.00    +0.000 C 
ATOM     14  O1  UNL     1      48.356  15.279  50.163  0.00  0.00    +0.000 OA
ENDBRANCH  11  13
ENDBRANCH   1  11
TORSDOF 4
ENDMDL
MODEL 6
REMARK VINA RESULT:     0.002     11.562     13.253
REMARK INTER + INTRA:          -0.727
REMARK INTER:                   0.000
REMARK INTRA:                  -0.727
REMARK UNBOUND:                -0.729
REMARK  Name = user_ligand.pdb
REMARK  5 active torsions:
REMARK  status: ('A' for Active; 'I' for Inactive)
REMARK    1  A    between atoms: C1_1  and  C2_2
REMARK    2  A    between atoms: C2_2  and  O2_4
REMARK    3  A    between atoms: O2_4  and  C3_5
REMARK    4  A    between atoms: C8_10  and  C9_11
REMARK    5  A    between atoms: C9_11  and  O4_13
REMARK                            x       y       z     vdW  Elec       q    Type
REMARK                         _______ _______ _______ _____ _____    ______ ____
ROOT
ATOM      1  C3  UNL     1      42.210  23.579  41.975  0.00  0.00    +0.000 A 
ATOM      2  C4  UNL     1      42.780  22.353  42.332  0.00  0.00    +0.000 A 
ATOM      3  C5  UNL     1      41.969  21.229  42.467  0.00  0.00    +0.000 A 
ATOM      4  C6  UNL     1      40.594  21.333  42.259  0.00  0.00    +0.000 A 
ATOM      5  C7  UNL     1      40.024  22.565  41.922  0.00  0.00    +0.000 A 
ATOM      6  C8  UNL     1      40.827  23.708  41.782  0.00  0.00    +0.000 A 
ENDROOT
BRANCH   6   7
ATOM      7  C9  UNL     1      40.224  25.027  41.452  0.00  0.00    +0.000 C 
ATOM      8  O3  UNL     1      39.466  25.681  42.144  0.00  0.00    +0.000 OA
BRANCH   7   9
ATOM      9  O4  UNL     1      40.602  25.478  40.241  0.00  0.00    +0.000 OA
ATOM     10  H8  UNL     1      41.579  25.534  40.307  0.00  0.00    +0.000 HD
ENDBRANCH   7   9
ENDBRANCH   6   7
BRANCH   1  11
ATOM     11  O2  UNL     1      43.076  24.674  41.885  0.00  0.00    +0.000 OA
BRANCH  11  13
ATOM     12  C1  UNL     1      45.300  24.753  41.126  0.00  0.00    +0.000 C 
ATOM     13  C2  UNL     1      43.857  24.643  40.734  0.00  0.00    +0.000 C 
ATOM     14  O1  UNL     1      43.458  24.523  39.583  0.00  0.00    +0.000 OA
ENDBRANCH  11  13
ENDBRANCH   1  11
TORSDOF 4
ENDMDL
MODEL 7
REMARK VINA RESULT:     0.002     14.737     15.952
REMARK INTER + INTRA:          -0.727
REMARK INTER:                   0.000
REMARK INTRA:                  -0.727
REMARK UNBOUND:                -0.729
REMARK  Name = user_ligand.pdb
REMARK  5 active torsions:
REMARK  status: ('A' for Active; 'I' for Inactive)
REMARK    1  A    between atoms: C1_1  and  C2_2
REMARK    2  A    between atoms: C2_2  and  O2_4
REMARK    3  A    between atoms: O2_4  and  C3_5
REMARK    4  A    between atoms: C8_10  and  C9_11
REMARK    5  A    between atoms: C9_11  and  O4_13
REMARK                            x       y       z     vdW  Elec       q    Type
REMARK                         _______ _______ _______ _____ _____    ______ ____
ROOT
ATOM      1  C3  UNL     1      54.546  10.819  43.199  0.00  0.00    +0.000 A 
ATOM      2  C4  UNL     1      54.206   9.602  42.600  0.00  0.00    +0.000 A 
ATOM      3  C5  UNL     1      54.159   8.442  43.371  0.00  0.00    +0.000 A 
ATOM      4  C6  UNL     1      54.462   8.497  44.731  0.00  0.00    +0.000 A 
ATOM      5  C7  UNL     1      54.820   9.713  45.323  0.00  0.00    +0.000 A 
ATOM      6  C8  UNL     1      54.874  10.890  44.561  0.00  0.00    +0.000 A 
ENDROOT
BRANCH   6   7
ATOM      7  C9  UNL     1      55.282  12.180  45.178  0.00  0.00    +0.000 C 
ATOM      8  O3  UNL     1      56.375  12.462  45.634  0.00  0.00    +0.000 OA
BRANCH   7   9
ATOM      9  O4  UNL     1      54.282  13.081  45.202  0.00  0.00    +0.000 OA
ATOM     10  H8  UNL     1      53.839  12.961  44.335  0.00  0.00    +0.000 HD
ENDBRANCH   7   9
ENDBRANCH   6   7
BRANCH   1  11
ATOM     11  O2  UNL     1      54.603  11.938  42.363  0.00  0.00    +0.000 OA
BRANCH  11  13
ATOM     12  C1  UNL     1      53.257  12.485  40.515  0.00  0.00    +0.000 C 
ATOM     13  C2  UNL     1      53.342  12.405  42.010  0.00  0.00    +0.000 C 
ATOM     14  O1  UNL     1      52.427  12.689  42.771  0.00  0.00    +0.000 OA
ENDBRANCH  11  13
ENDBRANCH   1  11
TORSDOF 4
ENDMDL
MODEL 8
REMARK VINA RESULT:     0.002     13.147     14.468
REMARK INTER + INTRA:          -0.727
REMARK INTER:                   0.000
REMARK INTRA:                  -0.727
REMARK UNBOUND:                -0.729
REMARK  Name = user_ligand.pdb
REMARK  5 active torsions:
REMARK  status: ('A' for Active; 'I' for Inactive)
REMARK    1  A    between atoms: C1_1  and  C2_2
REMARK    2  A    between atoms: C2_2  and  O2_4
REMARK    3  A    between atoms: O2_4  and  C3_5
REMARK    4  A    between atoms: C8_10  and  C9_11
REMARK    5  A    between atoms: C9_11  and  O4_13
REMARK                            x       y       z     vdW  Elec       q    Type
REMARK                         _______ _______ _______ _____ _____    ______ ____
ROOT
ATOM      1  C3  UNL     1      52.452   9.015  43.245  0.00  0.00    +0.000 A 
ATOM      2  C4  UNL     1      52.112   7.798  42.646  0.00  0.00    +0.000 A 
ATOM      3  C5  UNL     1      52.065   6.639  43.418  0.00  0.00    +0.000 A 
ATOM      4  C6  UNL     1      52.367   6.694  44.778  0.00  0.00    +0.000 A 
ATOM      5  C7  UNL     1      52.726   7.909  45.370  0.00  0.00    +0.000 A 
ATOM      6  C8  UNL     1      52.779   9.086  44.608  0.00  0.00    +0.000 A 
ENDROOT
BRANCH   6   7
ATOM      7  C9  UNL     1      53.188  10.376  45.225  0.00  0.00    +0.000 C 
ATOM      8  O3  UNL     1      54.281  10.658  45.681  0.00  0.00    +0.000 OA
BRANCH   7   9
ATOM      9  O4  UNL     1      52.187  11.277  45.249  0.00  0.00    +0.000 OA
ATOM     10  H8  UNL     1      51.889  11.319  44.316  0.00  0.00    +0.000 HD
ENDBRANCH   7   9
ENDBRANCH   6   7
BRANCH   1  11
ATOM     11  O2  UNL     1      52.509  10.134  42.410  0.00  0.00    +0.000 OA
BRANCH  11  13
ATOM     12  C1  UNL     1      51.163  10.681  40.562  0.00  0.00    +0.000 C 
ATOM     13  C2  UNL     1      51.248  10.601  42.056  0.00  0.00    +0.000 C 
ATOM     14  O1  UNL     1      50.333  10.885  42.818  0.00  0.00    +0.000 OA
ENDBRANCH  11  13
ENDBRANCH   1  11
TORSDOF 4
ENDMDL
MODEL 9
REMARK VINA RESULT:     0.002     13.051     13.882
REMARK INTER + INTRA:          -0.727
REMARK INTER:                   0.000
REMARK INTRA:                  -0.727
REMARK UNBOUND:                -0.729
REMARK  Name = user_ligand.pdb
REMARK  5 active torsions:
REMARK  status: ('A' for Active; 'I' for Inactive)
REMARK    1  A    between atoms: C1_1  and  C2_2
REMARK    2  A    between atoms: C2_2  and  O2_4
REMARK    3  A    between atoms: O2_4  and  C3_5
REMARK    4  A    between atoms: C8_10  and  C9_11
REMARK    5  A    between atoms: C9_11  and  O4_13
REMARK                            x       y       z     vdW  Elec       q    Type
REMARK                         _______ _______ _______ _____ _____    ______ ____
ROOT
ATOM      1  C3  UNL     1      50.636  21.145  47.062  0.00  0.00    +0.000 A 
ATOM      2  C4  UNL     1      50.810  20.824  45.712  0.00  0.00    +0.000 A 
ATOM      3  C5  UNL     1      50.750  21.830  44.750  0.00  0.00    +0.000 A 
ATOM      4  C6  UNL     1      50.505  23.148  45.134  0.00  0.00    +0.000 A 
ATOM      5  C7  UNL     1      50.312  23.463  46.483  0.00  0.00    +0.000 A 
ATOM      6  C8  UNL     1      50.368  22.461  47.466  0.00  0.00    +0.000 A 
ENDROOT
BRANCH   6   7
ATOM      7  C9  UNL     1      50.135  22.785  48.898  0.00  0.00    +0.000 C 
ATOM      8  O3  UNL     1      49.100  23.178  49.403  0.00  0.00    +0.000 OA
BRANCH   7   9
ATOM      9  O4  UNL     1      51.234  22.601  49.654  0.00  0.00    +0.000 OA
ATOM     10  H8  UNL     1      50.904  22.096  50.427  0.00  0.00    +0.000 HD
ENDBRANCH   7   9
ENDBRANCH   6   7
BRANCH   1  11
ATOM     11  O2  UNL     1      50.679  20.085  47.973  0.00  0.00    +0.000 OA
BRANCH  11  13
ATOM     12  C1  UNL     1      52.013  18.149  47.939  0.00  0.00    +0.000 C 
ATOM     13  C2  UNL     1      51.973  19.626  48.195  0.00  0.00    +0.000 C 
ATOM     14  O1  UNL     1      52.941  20.298  48.524  0.00  0.00    +0.000 OA
ENDBRANCH  11  13
ENDBRANCH   1  11
TORSDOF 4
ENDMDL
