REMARK  Name = user_ligand.pdb
REMARK  5 active torsions:
REMARK  status: ('A' for Active; 'I' for Inactive)
REMARK    1  A    between atoms: C1_1  and  C2_2
REMARK    2  A    between atoms: C2_2  and  O2_4
REMARK    3  A    between atoms: O2_4  and  C3_5
REMARK    4  A    between atoms: C8_10  and  C9_11
REMARK    5  A    between atoms: C9_11  and  O4_13
REMARK                            x       y       z     vdW  Elec       q    Type
REMARK                         _______ _______ _______ _____ _____    ______ ____
ROOT
ATOM      1  C3  UNL     1      -0.141   0.583  -0.287  0.00  0.00    +0.000 A 
ATOM      2  C4  UNL     1      -0.519   1.907  -0.042  0.00  0.00    +0.000 A 
ATOM      3  C5  UNL     1      -1.757   2.175   0.538  0.00  0.00    +0.000 A 
ATOM      4  C6  UNL     1      -2.617   1.126   0.861  0.00  0.00    +0.000 A 
ATOM      5  C7  UNL     1      -2.244  -0.196   0.597  0.00  0.00    +0.000 A 
ATOM      6  C8  UNL     1      -1.001  -0.484   0.012  0.00  0.00    +0.000 A 
ENDROOT
BRANCH   6   7
ATOM      7  C9  UNL     1      -0.611  -1.885  -0.298  0.00  0.00    +0.000 C 
ATOM      8  O3  UNL     1       0.395  -2.257  -0.873  0.00  0.00    +0.000 OA
BRANCH   7   9
ATOM      9  O4  UNL     1      -1.520  -2.781   0.132  0.00  0.00    +0.000 OA
ATOM     10  H8  UNL     1      -1.132  -3.646  -0.119  0.00  0.00    +0.000 HD
ENDBRANCH   7   9
ENDBRANCH   6   7
BRANCH   1  11
ATOM     11  O2  UNL     1       1.101   0.385  -0.898  0.00  0.00    +0.000 OA
BRANCH  11  13
ATOM     12  C1  UNL     1       3.359  -0.250  -0.739  0.00  0.00    +0.000 C 
ATOM     13  C2  UNL     1       2.094   0.039   0.012  0.00  0.00    +0.000 C 
ATOM     14  O1  UNL     1       1.986  -0.007   1.230  0.00  0.00    +0.000 OA
ENDBRANCH  11  13
ENDBRANCH   1  11
TORSDOF 4
