REMARK  Name = user_ligand.pdb
REMARK  4 active torsions:
REMARK  status: ('A' for Active; 'I' for Inactive)
REMARK    1  A    between atoms: C1_1  and  O2_3
REMARK    2  A    between atoms: O2_3  and  C2_4
REMARK    3  A    between atoms: C7_9  and  C8_10
REMARK    4  A    between atoms: C8_10  and  O4_12
REMARK                            x       y       z     vdW  Elec       q    Type
REMARK                         _______ _______ _______ _____ _____    ______ ____
ROOT
ATOM      1  C2  UNL     1       0.069   0.663  -0.521  0.00  0.00    +0.000 A 
ATOM      2  C3  UNL     1      -1.204   1.074  -0.930  0.00  0.00    +0.000 A 
ATOM      3  C4  UNL     1      -2.291   0.218  -0.767  0.00  0.00    +0.000 A 
ATOM      4  C5  UNL     1      -2.104  -1.047  -0.210  0.00  0.00    +0.000 A 
ATOM      5  C6  UNL     1      -0.826  -1.462   0.181  0.00  0.00    +0.000 A 
ATOM      6  C7  UNL     1       0.280  -0.612   0.023  0.00  0.00    +0.000 A 
ENDROOT
BRANCH   6   7
ATOM      7  C8  UNL     1       1.644  -1.057   0.409  0.00  0.00    +0.000 C 
ATOM      8  O3  UNL     1       2.685  -0.444   0.264  0.00  0.00    +0.000 OA
BRANCH   7   9
ATOM      9  O4  UNL     1       1.649  -2.282   0.971  0.00  0.00    +0.000 OA
ATOM     10  H6  UNL     1       2.593  -2.436   1.186  0.00  0.00    +0.000 HD
ENDBRANCH   7   9
ENDBRANCH   6   7
BRANCH   1  11
ATOM     11  O2  UNL     1       1.121   1.558  -0.741  0.00  0.00    +0.000 OA
BRANCH  11  12
ATOM     12  C1  UNL     1       1.453   2.267   0.400  0.00  0.00    +0.000 C 
ATOM     13  O1  UNL     1       0.885   2.258   1.482  0.00  0.00    +0.000 OA
ENDBRANCH  11  12
ENDBRANCH   1  11
TORSDOF 4
